Version 4
SHEET 1 1024 720
WIRE -528 -448 -784 -448
WIRE -784 -240 -784 -448
WIRE -528 -176 -528 -448
WIRE -832 -160 -1072 -160
WIRE -784 -160 -784 -192
WIRE -1072 -128 -1072 -160
WIRE -1072 -112 -1072 -128
WIRE -784 -96 -784 -144
WIRE -640 -96 -784 -96
WIRE -784 -48 -784 -96
WIRE -784 -48 -880 -48
WIRE -640 -32 -640 -96
WIRE -784 -16 -784 -48
WIRE -880 64 -880 -48
WIRE -832 64 -880 64
WIRE -784 64 -784 32
WIRE -1072 176 -1072 -48
WIRE -784 176 -784 80
WIRE -784 176 -1072 176
WIRE -640 176 -640 32
WIRE -640 176 -784 176
WIRE -528 176 -528 -96
WIRE -528 176 -640 176
FLAG -784 176 0
FLAG -1328 -304 0
SYMBOL nmos4 -832 -240 R0
SYMATTR InstName M1
SYMATTR Value NMOS-BSIM
SYMBOL voltage -1072 -144 R0
WINDOW 123 24 124 Left 2
WINDOW 39 0 0 Left 0
SYMATTR Value2 AC 1m
SYMATTR InstName V1
SYMATTR Value SINE(1.5 1m 1k 0 0 0)
SYMBOL voltage -528 -192 R0
WINDOW 123 0 0 Left 0
WINDOW 39 0 0 Left 0
SYMATTR InstName V2
SYMATTR Value 3
SYMBOL cap -656 -32 R0
SYMATTR InstName C1
SYMATTR Value 10p
SYMBOL voltage -1328 -400 R0
SYMATTR InstName V3
SYMATTR Value SINE(1 1 1k)
SYMBOL nmos4 -832 -16 R0
SYMATTR InstName M2
SYMATTR Value NMOS-BSIM
SYMATTR Value2 l=2000u w=10u
TEXT 280 -240 Left 2 !.MODEL NMOS-BSIM NMOS LEVEL = 49\n+VERSION = 3.1 TNOM = 27 TOX = 7.8E-9\n+XJ = 1E-07 NCH = 2.18E+17 VTH0 = 0.48\n+K1 = 6.07E-01 K2 = 1.24E-03 K3 = 9.68E+01\n+K3B = -9.84E+00 W0 = 2.02E-05 NLX = 1.62E-07\n+DVT0W = 0 DVT1W = 0 DVT2W = 0\n+DVT0 = 2.87E+00 DVT1 = 5.86E-01 DVT2 = -1.26E-01\n+U0 = 360 UA = -8.48E-10 UB = 2.27E-18\n+UC = 3.27E-11 VSAT = 1.87E+05 A0 = 1.22E+00\n+AGS = 2.06E-01 B0 = 9.60E-07 B1 = 4.95E-06\n+KETA = -1.67E-04 A1 = 0 A2 = 3.49E-01\n+RDSW = 8.18E+02 PRWG = 2.35E-02 PRWB = -8.12E-02\n+WR = 9.98E-01 WINT = 1.55E-07 LINT = 4.51E-10\n+DWG = -4.27E-09\n+DWB = 4.07E-09 VOFF = -4.14E-02 NFACTOR = 1.61E+00\n+CIT = 0 CDSC = 2.39E-04 CDSCD = 0.00E+00\n+CDSCB = 0 ETA0 = 1 ETAB = -1.99E-01\n+DSUB = 1 PCLM = 1.32E+00 PDIBLC1 = 2.42E-04\n+PDIBLC2 = 8.27E-03 PDIBLCB = -9.99E-04 DROUT = 9.72E-04\n+PSCBE1 = 7.24E+08 PSCBE2 = 9.96E-04 PVAG = 1.00E-02\n+DELTA = 1.01E-02 RSH = 3.33E+00 MOBMOD = 1\n+PRT = 0 UTE = -1.5 KT1 = -1.11E-01\n+KT1L = 0 KT2 = 2.22E-02 UA1 = 4.34E-09\n+UB1 = -7.56E-18 UC1 = -5.62E-11 AT = 3.31E+04\n+WL = 0 WLN = 9.95E-01 WW = 0\n+WWN = 1.00E+00 WWL = 0 LL = 0\n+LLN = 1 LW = 0 LWN = 1\n+LWL = 0 CAPMOD = 2 XPART = 0.5\n+CGDO = 2.76E-10 CGSO = 2.76E-10 CGBO = 1.00E-12\n+CJ = 9e-4 PB = 7.95E-01 MJ = 3.53E-01\n+CJSW = 2.8e-10 PBSW = 7.98E-01 MJSW = 1.73E-01\n+CJSWG = 1.81E-10 PBSWG = 7.96E-01 MJSWG = 1.74E-01\n+CF = 0 PVTH0 = -1.80E-02 PRDSW = -7.56E+01\n+PK2 = 4.48E-05 WKETA = -1.33E-03 LKETA = -8.91E-03
TEXT -1328 136 Left 2 !.tran 0.01
TEXT -1354 184 Left 2 !;.ac dec 1000 1 100meg
