Version 4
SHEET 1 1832 1784
WIRE -640 -704 -992 -704
WIRE -640 -672 -640 -704
WIRE -992 -576 -992 -704
WIRE -992 -576 -1168 -576
WIRE -800 -576 -992 -576
WIRE -1168 -528 -1168 -576
WIRE -1168 -528 -1184 -528
WIRE -800 -528 -800 -576
WIRE -784 -528 -800 -528
WIRE -1184 -480 -1184 -528
WIRE -1168 -480 -1184 -480
WIRE -784 -480 -784 -528
WIRE -784 -480 -800 -480
WIRE -1072 -448 -1120 -448
WIRE -848 -448 -1072 -448
WIRE -1168 -352 -1168 -432
WIRE -1168 -352 -1184 -352
WIRE -800 -352 -800 -432
WIRE -784 -352 -800 -352
WIRE -1184 -304 -1184 -352
WIRE -1168 -304 -1184 -304
WIRE -784 -304 -784 -352
WIRE -784 -304 -800 -304
WIRE -960 -272 -1120 -272
WIRE -848 -272 -960 -272
WIRE -1168 -224 -1168 -256
WIRE -1072 -224 -1072 -448
WIRE -1072 -224 -1168 -224
WIRE -960 -224 -960 -272
WIRE -800 -192 -800 -256
WIRE -512 -192 -800 -192
WIRE -512 -160 -512 -192
WIRE -1168 -144 -1168 -224
WIRE -800 -144 -800 -192
WIRE -1168 -96 -1184 -96
WIRE -784 -96 -800 -96
WIRE -960 -64 -1120 -64
WIRE -848 -64 -960 -64
WIRE -1184 -48 -1184 -96
WIRE -1168 -48 -1184 -48
WIRE -784 -48 -784 -96
WIRE -784 -48 -800 -48
WIRE -960 -32 -960 -64
WIRE -1168 32 -1168 -48
WIRE -800 32 -800 -48
WIRE -1152 80 -1168 80
WIRE -800 80 -816 80
WIRE -1216 112 -1488 112
WIRE -560 112 -752 112
WIRE -1168 144 -1168 128
WIRE -1152 144 -1152 80
WIRE -1152 144 -1168 144
WIRE -976 144 -1152 144
WIRE -816 144 -816 80
WIRE -816 144 -976 144
WIRE -800 144 -800 128
WIRE -800 144 -816 144
WIRE -560 144 -560 112
WIRE -1488 160 -1488 112
WIRE -976 160 -976 144
WIRE -1024 240 -1184 240
WIRE -1184 256 -1184 240
FLAG -1488 240 0
FLAG -1184 336 0
FLAG -976 256 0
FLAG -560 224 0
FLAG -960 48 0
FLAG -960 -144 0
FLAG -976 208 0
FLAG -640 -592 0
FLAG -1728 -448 0
FLAG -1728 -528 V1
FLAG -800 -192 Vout
FLAG -512 -96 0
SYMBOL nmos4 -1024 160 R0
SYMATTR InstName M1
SYMATTR Value NMOS-BSIM
SYMATTR Value2 l=11.5u w=110u
SYMBOL nmos4 -1216 32 R0
SYMATTR InstName M2
SYMATTR Value NMOS-BSIM
SYMATTR Value2 l=11.5u w=110u
SYMBOL nmos4 -752 32 M0
SYMATTR InstName M3
SYMATTR Value NMOS-BSIM
SYMATTR Value2 l=11.5u w=110u
SYMBOL nmos4 -1120 -144 M0
SYMATTR InstName M4
SYMATTR Value NMOS-BSIM
SYMATTR Value2 l=11.5u w=110u
SYMBOL nmos4 -848 -144 R0
SYMATTR InstName M5
SYMATTR Value NMOS-BSIM
SYMATTR Value2 l=11.5u w=110u
SYMBOL pmos4 -1120 -352 M0
SYMATTR InstName M6
SYMATTR Value PMOS-BSIM
SYMATTR Value2 l=3.75u w=20u
SYMBOL pmos4 -848 -352 R0
SYMATTR InstName M7
SYMATTR Value PMOS-BSIM
SYMATTR Value2 l=3.75u w=20u
SYMBOL pmos4 -1120 -528 M0
SYMATTR InstName M8
SYMATTR Value PMOS-BSIM
SYMATTR Value2 l=3.75u w=20u
SYMBOL pmos4 -848 -528 R0
SYMATTR InstName M9
SYMATTR Value PMOS-BSIM
SYMATTR Value2 l=3.75u w=20u
SYMBOL voltage -1488 144 R0
WINDOW 123 24 124 Left 2
WINDOW 39 0 0 Left 0
SYMATTR Value2 AC 2
SYMATTR InstName V1
SYMATTR Value SINE(1 0.1m 1k)
SYMBOL voltage -560 128 R0
WINDOW 123 24 124 Left 2
WINDOW 39 0 0 Left 0
SYMATTR Value2 AC 1
SYMATTR InstName V2
SYMATTR Value SINE(1 -0.1m 1k)
SYMBOL voltage -1184 240 R0
WINDOW 123 0 0 Left 0
WINDOW 39 0 0 Left 0
SYMATTR InstName VCM1
SYMATTR Value 0.8
SYMBOL voltage -960 -48 R0
SYMATTR InstName V4
SYMATTR Value 1.2
SYMBOL voltage -960 -240 R0
WINDOW 123 0 0 Left 0
WINDOW 39 0 0 Left 0
SYMATTR InstName Vbias
SYMATTR Value 1
SYMBOL voltage -640 -688 R0
WINDOW 123 0 0 Left 0
WINDOW 39 0 0 Left 0
SYMATTR InstName VDD
SYMATTR Value 3
SYMBOL voltage -1728 -544 R0
WINDOW 123 0 0 Left 0
WINDOW 39 0 0 Left 0
SYMATTR InstName V3
SYMATTR Value SINE(1 1 1k)
SYMBOL cap -528 -160 R0
SYMATTR InstName CL
SYMATTR Value 1p
TEXT -88 -1240 Left 2 !*BSIM3_035.lib\n.MODEL NMOS-BSIM NMOS LEVEL = 49\n+VERSION = 3.1 TNOM = 27 TOX = 7.8E-9\n+XJ = 1E-07 NCH = 2.18E+17 VTH0 = 0.48\n+K1 = 6.07E-01 K2 = 1.24E-03 K3 = 9.68E+01\n+K3B = -9.84E+00 W0 = 2.02E-05 NLX = 1.62E-07\n+DVT0W = 0 DVT1W = 0 DVT2W = 0\n+DVT0 = 2.87E+00 DVT1 = 5.86E-01 DVT2 = -1.26E-01\n+U0 = 360 UA = -8.48E-10 UB = 2.27E-18\n+UC = 3.27E-11 VSAT = 1.87E+05 A0 = 1.22E+00\n+AGS = 2.06E-01 B0 = 9.60E-07 B1 = 4.95E-06\n+KETA = -1.67E-04 A1 = 0 A2 = 3.49E-01\n+RDSW = 8.18E+02 PRWG = 2.35E-02 PRWB = -8.12E-02\n+WR = 9.98E-01 WINT = 1.55E-07 LINT = 4.51E-10\n+DWG = -4.27E-09\n+DWB = 4.07E-09 VOFF = -4.14E-02 NFACTOR = 1.61E+00\n+CIT = 0 CDSC = 2.39E-04 CDSCD = 0.00E+00\n+CDSCB = 0 ETA0 = 1 ETAB = -1.99E-01\n+DSUB = 1 PCLM = 1.32E+00 PDIBLC1 = 2.42E-04\n+PDIBLC2 = 8.27E-03 PDIBLCB = -9.99E-04 DROUT = 9.72E-04\n+PSCBE1 = 7.24E+08 PSCBE2 = 9.96E-04 PVAG = 1.00E-02\n+DELTA = 1.01E-02 RSH = 3.33E+00 MOBMOD = 1\n+PRT = 0 UTE = -1.5 KT1 = -1.11E-01\n+KT1L = 0 KT2 = 2.22E-02 UA1 = 4.34E-09\n+UB1 = -7.56E-18 UC1 = -5.62E-11 AT = 3.31E+04\n+WL = 0 WLN = 9.95E-01 WW = 0\n+WWN = 1.00E+00 WWL = 0 LL = 0\n+LLN = 1 LW = 0 LWN = 1\n+LWL = 0 CAPMOD = 2 XPART = 0.5\n+CGDO = 2.76E-10 CGSO = 2.76E-10 CGBO = 1.00E-12\n+CJ = 9e-4 PB = 7.95E-01 MJ = 3.53E-01\n+CJSW = 2.8e-10 PBSW = 7.98E-01 MJSW = 1.73E-01\n+CJSWG = 1.81E-10 PBSWG = 7.96E-01 MJSWG = 1.74E-01\n+CF = 0 PVTH0 = -1.80E-02 PRDSW = -7.56E+01\n+PK2 = 4.48E-05 WKETA = -1.33E-03 LKETA = -8.91E-03\n \n.MODEL PMOS-BSIM PMOS LEVEL = 49\n+VERSION = 3.1 TNOM = 2.69E+01 TOX = 7.8E-9\n+XJ = 1.00E-07 NCH = 8.44E+16 VTH0 = -0.6\n+K1 = 4.82E-01 K2 = -2.13E-02 K3 = 8.27E+01\n+K3B = -5 W0 = 5.24E-06 NLX = 2.49E-07\n+DVT0W = 0.00E+00 DVT1W = 0 DVT2W = 0\n+DVT0 = 3.54E-01 DVT1 = 7.52E-01 DVT2 = -2.98E-01\n+U0 = 150 UA = 1E-10 UB = 1.75E-18\n+UC = -2.27E-11 VSAT = 2.01E+05 A0 = 1.04E+00\n+AGS = 2.90E-01 B0 = 1.94E-06 B1 = 5.01E-06\n+KETA = -3.85E-03 A1 = 4.20E-03 A2 = 1.00E+00\n+RDSW = 4000 PRWG = -9.54E-02 PRWB = -1.92E-03\n+WR = 1 WINT = 1.47E-07 LINT = 1.04E-10\n+DWG = -1.09E-08\n+DWB = 1.14E-08 VOFF = -1.29E-01 NFACTOR = 2.01E+00\n+CIT = 0 CDSC = 2.40E-04 CDSCD = 0\n+CDSCB = 0 ETA0 = 4.07E-02 ETAB = 6.84E-03\n+DSUB = 3.21E-01 PCLM = 5.96E+00 PDIBLC1 = 2.89E-03\n+PDIBLC2 = -1.45E-06 PDIBLCB = -1E-03 DROUT = 9.93E-04\n+PSCBE1 = 7.88E+10 PSCBE2 = 5E-10 PVAG = 15\n+DELTA = 9.96E-03 RSH = 2.6 MOBMOD = 1\n+PRT = 0 UTE = -1.5 KT1 = -1.09E-01\n+KT1L = 0 KT2 = 2.19E-02 UA1 = 4.34E-09\n+UB1 = -7.62E-18 UC1 = -5.63E-11 AT = 3.28E+04\n+WL = 0 WLN = 1 WW = 0\n+WWN = 1.00E+00 WWL = 0 LL = 0\n+LLN = 1 LW = 0 LWN = 1\n+LWL = 0 CAPMOD = 2.01E+00 XPART = 0.5\n+CGDO = 2.10E-10 CGSO = 2.12E-10 CGBO = 1.00E-12\n+CJ = 14e-4 PB = 9.83E-01 MJ = 5.79E-01\n+CJSW = 3.2e-10 PBSW = 9.92E-01 MJSW = 3.60E-01\n+CJSWG = 4.41E-11 PBSWG = 9.85E-01 MJSWG = 3.58E-01\n+CF = 0 PVTH0 = 2.58E-02 PRDSW = -3.98E+01\n+PK2 = 2.02E-03 WKETA = 2.72E-03 LKETA = -7.14E-03
TEXT -1744 -168 Left 2 !.ac dec 10 1 100meg
TEXT -1736 -224 Left 2 !;.tran 5m
